/*--------------------------------*- C++ -*----------------------------------*\
| =========                 |                                                 |
| \\      /  F ield         | OpenFOAM: The Open Source CFD Toolbox           |
|  \\    /   O peration     | Version:  v2306                                 |
|   \\  /    A nd           | Website:  www.openfoam.com                      |
|    \\/     M anipulation  |                                                 |
\*---------------------------------------------------------------------------*/
FoamFile
{
    version     2.0;
    format      ascii;
    class       dictionary;
    object      fvSchemes;
}
// * * * * * * * * * * * * * * * * * * * * * * * * * * * * * * * * * * * * * //

ddtSchemes
{
    default         steadyState;
}

gradSchemes
{
	default			Gauss linear;
}

divSchemes
{
	default							none;
        div(phi,U)      				Gauss linearUpwind grad(U);
	//div(U)							Gauss linear;
	div(phi,nuTilda) 				bounded Gauss linearUpwind limited 1;

	//div(phi,k)      				Gauss linearUpwind grad(U);
	//div(phi,omega)      				Gauss linearUpwind grad(U);

	div((nuEff*dev2(T(grad(U)))))	Gauss linear;
}

laplacianSchemes
{
	default			Gauss linear corrected;
}

interpolationSchemes
{
    default         linear;
}

snGradSchemes
{
    default         corrected;
}

wallDist
{
	method			meshWave;
	nRequired		false;
}


// ************************************************************************* //
