/*--------------------------------*- C++ -*----------------------------------*\
| =========                 |                                                 |
| \\      /  F ield         | OpenFOAM: The Open Source CFD Toolbox           |
|  \\    /   O peration     | Version:  v2306                                 |
|   \\  /    A nd           | Website:  www.openfoam.com                      |
|    \\/     M anipulation  |                                                 |
\*---------------------------------------------------------------------------*/
FoamFile
{
    version     2.0;
    format      ascii;
    class       dictionary;
    object      fvSolution;
}
// * * * * * * * * * * * * * * * * * * * * * * * * * * * * * * * * * * * * * //

solvers
{
    p
    {
        solver          GAMG;
        smoother        DICGaussSeidel;
        tolerance       1e-06;
        relTol          0.1;
    }

    "(U|k|omega|nuTilda)"
    {
        solver          smoothSolver;
        smoother        symGaussSeidel;
        tolerance       1e-06;
        relTol          0.1;
    }
	
}

SIMPLE
{
    nNonOrthogonalCorrectors 	0;
	pRefCell		0;
	pRefValue		0;
	residualControl
	{
		p		1e-6;
		U		1e-6;
		//k		1e-5;
		//omega		1e-5;
		nuTilda         1e-6;
	}
}

relaxationFactors
{
	fields
	{
		p			0.3;
	}
	equations
	{
		"(U|k|omega|nuTilda)"		0.5;
	}
}

// ************************************************************************* //
