/*--------------------------------*- C++ -*----------------------------------*\
| =========                 |                                                 |
| \\      /  F ield         | OpenFOAM: The Open Source CFD Toolbox           |
|  \\    /   O peration     | Version:  v2306                                 |
|   \\  /    A nd           | Website:  www.openfoam.com                      |
|    \\/     M anipulation  |                                                 |
\*---------------------------------------------------------------------------*/
FoamFile
{
    version     2.0;
    format      ascii;
    class       dictionary;
    object      blockMeshDict;
}
// * * * * * * * * * * * * * * * * * * * * * * * * * * * * * * * * * * * * * //

scale   1;

vertices
(	
	// BLOCK 0
	(-4.2 -3.1 0) 		//0
	(1.3 -3.1 0) 		//1
	(1.3 -0.45 0)		//2
	(-4.2 -0.45 0)		//3
	(-4.2 -3.1 1.05) 	//4
	(1.3 -3.1 1.05) 	//5
	(1.3 -0.45 1.05)	//6
	(-4.2 -0.45 1.05)	//7
	
	// BLOCK 1 (4, 5, 6, 7, ...)
	(-4.2 -3.1 1.65) 	//8
	(1.3 -3.1 1.65) 	//9
	(1.3 -0.45 1.65)	//10
	(-4.2 -0.45 1.65)	//11
	
	// BLOCK 2 (8, 9, 10, 11, ...)
	(-4.2 -3.1 2.7) 	//12
	(1.3 -3.1 2.7) 		//13
	(1.3 -0.45 2.7)		//14
	(-4.2 -0.45 2.7)	//15
	
	// BLOCK 3 (3, 2, 16, 17, 7, 6, 18, 19)
	(1.3 0.45 0)		//16
	(-4.2 0.45 0)		//17
	(1.3 0.45 1.05)		//18
	(-4.2 0.45 1.05)	//19
	
	// BLOCK 4 (7, 6, 18, 19, 11, 10, 20, 21)
	(1.3 0.45 1.65)		//20
	(-4.2 0.45 1.65)	//21
	
	// BLOCK 5 (11, 10, 20, 21, 15, 14, 22, 23)
	(1.3 0.45 2.7)		//22
	(-4.2 0.45 2.7)		//23
	
	// BLOCK 6 (17, 16, 24, 25, 19, 18, 26, 27)
	(1.3 3.1 0)			//24
	(-4.2 3.1 0)		//25
	(1.3 3.1 1.05)		//26
	(-4.2 3.1 1.05)		//27
	
	// BLOCK 7 (19, 18, 26, 27, 21, 20, 28, 29)
	(1.3 3.1 1.65)		//28
	(-4.2 3.1 1.65)		//29
	
	// BLOCK 8 (21, 20, 28, 29, 23, 22, 30, 31)
	(1.3 3.1 2.7)		//30
	(-4.2 3.1 2.7)		//31
);

blocks
(
		hex (0 1 2 3 4 5 6 7) (55 53 35) simpleGrading (1 1 1) 			// BLOCK 0
		hex (4 5 6 7 8 9 10 11) (55 53 20) simpleGrading (1 1 1) 		// BLOCK 1
		hex (8 9 10 11 12 13 14 15) (55 53 35) simpleGrading (1 1 1) 	//BLOCK 2
		hex (3 2 16 17 7 6 18 19) (55 18 35) simpleGrading (1 1 1)		// BLOCK 3
		hex (7 6 18 19 11 10 20 21) (55 18 20) simpleGrading (1 1 1)	//BLOCK 4	
		hex (11 10 20 21 15 14 22 23) (55 18 35) simpleGrading (1 1 1)	//BLOCK 5
		hex (17 16 24 25 19 18 26 27) (55 53 35) simpleGrading (1 1 1) 	// BLOCK 6
		hex (19 18 26 27 21 20 28 29) (55 53 20) simpleGrading (1 1 1)	//BLOCK 7
		hex (21 20 28 29 23 22 30 31) (55 53 35) simpleGrading (1 1 1)	//BLOCK 8
);

edges
(
);

boundary
(	
	top
	{
		type patch;
		faces
		(
			(12 13 14 15)
			(15 14 22 23)
			(23 22 30 31)
		);
	}
	bottom
	{
		type patch;
		faces
		(
			(0 1 2 3)
			(3 2 16 17)
			(17 16 24 25)
		);
	}
	inlet
	{
		type patch;
		faces
		(
			(6 18 20 10)
		);
	}
	walls
	{
		type patch;
		faces
		(
			// BLOCK 0
			(0 1 5 4)
			(1 2 6 5)
			(0 3 7 4)
			// BLOCK 1
			(4 5 9 8)
			(5 6 10 9)
			(4 7 11 8)
			// BLOCK 2
			(8 9 13 12)
			(9 10 14 13)
			(8 11 15 12)
			// BLOCK 3
			(2 16 18 6)
			(3 17 19 7)
			// BLOCK 4
			(7 19 21 11)
			// BLOCK 5
			(10 20 22 14)
			(11 21 23 15)
			// BLOCK 6
			(16 24 26 18)
			(17 25 27 19)
			(24 25 27 26)
			// BLOCK 7
			(18 26 28 20)
			(19 27 29 21)
			(26 27 29 28)
			// BLOCK 8
			(20 28 30 22)
			(21 29 31 23)
			(28 29 31 30)
		);
	}
);


// ************************************************************************* //
