/*--------------------------------*- C++ -*----------------------------------*\
| =========                 |                                                 |
| \\      /  F ield         | OpenFOAM: The Open Source CFD Toolbox           |
|  \\    /   O peration     | Version:  v2306                                 |
|   \\  /    A nd           | Website:  www.openfoam.com                      |
|    \\/     M anipulation  |                                                 |
\*---------------------------------------------------------------------------*/
FoamFile
{
    version     2.0;
    format      ascii;
    class       dictionary;
    object      blockMeshDict;
}
// * * * * * * * * * * * * * * * * * * * * * * * * * * * * * * * * * * * * * //

scale   1;

vertices
(	
	(-4.2 -3.1 0) 		//0
	(1.3 -3.1 0) 		//1
	(1.3 3.1 0) 		//2
	(-4.2 3.1 0) 		//3
	(-4.2 -3.1 2.7) 	//4
	(1.3 -3.1 2.7) 		//5
	(1.3 3.1 2.7) 		//6
	(-4.2 3.1 2.7) 		//7
	
	// inlet
	(1.3 -0.45 1.05)  	//8
	(1.3 -0.45 1.65)	//9
	(1.3 0.45 1.65)		//10
	(1.3 0.45 1.05)		//11
	(-4.2 -0.45 1.05)	//12
	(-4.2 -0.45 1.65)	//13
	(-4.2 0.45 1.65)	//14
	(-4.2 0.45 1.05)	//15
	
	// lower points
	(1.3 -3.1 1.05)		//16
	(-4.2 -3.1 1.05)	//17
	(-4.2 3.1 1.05)		//18
	(1.3 3.1 1.05)		//19
	
	// upper points
	(1.3 -3.1 1.65)		//20
	(-4.2 -3.1 1.65)	//21
	(-4.2 3.1 1.65)		//22
	(1.3 3.1 1.65)		//23
);

blocks
(
		hex (0 1 2 3 17 16 19 18) (55 124 35) simpleGrading (1 1 1)  // lower body
		hex (21 20 23 22 4 5 6 7) (55 124 35) simpleGrading (1 1 1) // upper body
		//hex (8 9 10 11 12 13 14 15) (55 18 20) simpleGrading (1 1 1)  //inlet
		hex (12 8 11 15 13 9 10 14) (55 18 20) simpleGrading (1 1 1)
		//hex (16 8 12 17 20 9 13 21) (55 53 20) simpleGrading (1 1 1)
		hex (17 16 8 12 21 20 9 13) (55 53 20) simpleGrading (1 1 1)
		//hex (11 19 18 15 10 23 22 14) (55 53 20) simpleGrading (1 1 1)
		hex (15 11 19 18 14 10 23 22) (55 53 20) simpleGrading (1 1 1)
		
    	//hex (0 1 2 3 4 5 6 7) (55 62 90) simpleGrading (1 1 1) //
);

edges
(
);

boundary
(
    /*allBoundary
    {
        type patch;
        faces
        (
            (0 3 7 4)
			(3 2 6 7)
			(2 6 5 1)
    	    (0 1 5 4)
			(4 5 6 7)
			(0 1 2 3)
        );
    }*/
	
	top
	{
		type patch;
		faces
		(
			(4 5 6 7)
		);
	}
	bottom
	{
		type patch;
		faces
		(
			(0 1 2 3)
		);
	}
	inlet
	{
		type patch;
		faces
		(
			(8 9 10 11)
		);
	}
	walls
	{
		type patch;
		faces
		(
			//(0 1 5 4)
			(0 1 16 17)
			(16 17 21 20)
			(21 20 5 4)
			//(2 3 6 7)
			(2 3 18 19)
			(18 19 23 22)
			(23 22 7 6)
			(1 2 16 19)
			(5 6 20 23)
			(16 8 9 20)
			(11 19 23 10)
			(0 3 18 17)
			(21 22 7 4)
			(18 15 14 22)
			(12 13 14 15)
			(12 17 21 13)
		);
	}
);


// ************************************************************************* //
