/*--------------------------------*- C++ -*----------------------------------*\
  =========                 |
  \\      /  F ield         | OpenFOAM: The Open Source CFD Toolbox
   \\    /   O peration     | Website:  https://openfoam.org
    \\  /    A nd           | Version:  11
     \\/     M anipulation  |
\*---------------------------------------------------------------------------*/
FoamFile
{
    format      ascii;
    class       dictionary;
    object      surfaceFeaturesDict;
}
// * * * * * * * * * * * * * * * * * * * * * * * * * * * * * * * * * * * * * //


ground
{
    surfaces
    (
        "ground.stl"
    );

    includedAngle   150;
}

inlet
{
    surfaces
    (
        "inlet.stl"
    );

    includedAngle   150;
}

top
{
    surfaces
    (
        "top.stl"
    );

    includedAngle   150;
}

walls
{
    surfaces
    (
        "walls.stl"
    );

    includedAngle   150;
}

}


// ************************************************************************* //
